Test_Network/condensed/network_18/Feeder_2/Loads - Copy.txt
New Load.LOAD1 Phases=1 Bus1=71.2 kV=0.23 kW=1 PF=0.95
New Load.LOAD2 Phases=1 Bus1=196.3 kV=0.23 kW=1 PF=0.95
New Load.LOAD3 Phases=1 Bus1=239.2 kV=0.23 kW=1 PF=0.95
New Load.LOAD4 Phases=1 Bus1=314.3 kV=0.23 kW=1 PF=0.95
New Load.LOAD5 Phases=1 Bus1=405.3 kV=0.23 kW=1 PF=0.95
New Load.LOAD6 Phases=1 Bus1=514.2 kV=0.23 kW=1 PF=0.95
New Load.LOAD7 Phases=1 Bus1=606.3 kV=0.23 kW=1 PF=0.95
New Load.LOAD8 Phases=1 Bus1=614.2 kV=0.23 kW=1 PF=0.95
New Load.LOAD9 Phases=1 Bus1=712.1 kV=0.23 kW=1 PF=0.95
New Load.LOAD10 Phases=1 Bus1=747.1 kV=0.23 kW=1 PF=0.95
New Load.LOAD11 Phases=1 Bus1=762.3 kV=0.23 kW=1 PF=0.95
New Load.LOAD12 Phases=1 Bus1=780.1 kV=0.23 kW=1 PF=0.95
New Load.LOAD13 Phases=1 Bus1=791.2 kV=0.23 kW=1 PF=0.95
New Load.LOAD14 Phases=1 Bus1=843.3 kV=0.23 kW=1 PF=0.95
New Load.LOAD15 Phases=1 Bus1=849.1 kV=0.23 kW=1 PF=0.95
New Load.LOAD16 Phases=1 Bus1=898.3 kV=0.23 kW=1 PF=0.95
New Load.LOAD17 Phases=1 Bus1=908.2 kV=0.23 kW=1 PF=0.95
New Load.LOAD18 Phases=1 Bus1=909.2 kV=0.23 kW=1 PF=0.95
New Load.LOAD19 Phases=1 Bus1=920.2 kV=0.23 kW=1 PF=0.95
New Load.LOAD20 Phases=1 Bus1=938.3 kV=0.23 kW=1 PF=0.95
New Load.LOAD21 Phases=1 Bus1=975.3 kV=0.23 kW=1 PF=0.95
New Load.LOAD22 Phases=1 Bus1=982.2 kV=0.23 kW=1 PF=0.95
New Load.LOAD23 Phases=1 Bus1=984.3 kV=0.23 kW=1 PF=0.95
New Load.LOAD24 Phases=1 Bus1=990.2 kV=0.23 kW=1 PF=0.95
